Displayed atoms
                    3D
 Structure written by MMmdl.
 49 48  0  0  1  0            999 V2000
   -1.0080   -2.4550    0.0130 N   0  3  0  0  0  0
    0.4410   -2.4550    0.0130 C   0  0  2  0  0  0
    0.9640   -1.0260    0.0130 C   0  0  0  0  0  0
    1.8570   -0.6900    0.7890 O   0  0  0  0  0  0
    0.9920   -3.1560   -1.2190 C   0  0  0  0  0  0
    0.6830   -4.6310   -1.1350 C   0  0  0  0  0  0
    1.1910   -5.3300   -2.3940 C   0  0  0  0  0  0
    1.0450   -6.5800   -2.4580 O   0  5  0  0  0  0
    1.7200   -4.6070   -3.2810 O   0  0  0  0  0  0
    0.4050   -0.1850   -0.8600 N   0  0  0  0  0  0
    0.8150    1.2010   -0.9570 C   0  0  2  0  0  0
    0.6610    1.8890    0.3920 C   0  0  0  0  0  0
    1.5680    2.5850    0.8420 O   0  0  0  0  0  0
   -0.0340    1.9570   -1.9680 C   0  0  0  0  0  0
    0.3560    1.5240   -3.3800 C   0  0  0  0  0  0
   -0.4080    1.8710   -4.3200 O   0  5  0  0  0  0
    1.4130    0.8500   -3.5040 O   0  0  0  0  0  0
   -0.4920    1.6910    1.0350 N   0  0  0  0  0  0
   -0.7600    2.2900    2.3270 C   0  0  2  0  0  0
    0.3130    1.8820    3.3260 C   0  0  0  0  0  0
    0.8010    2.7750    4.0150 O   0  0  0  0  0  0
    0.6110    0.6910    3.3690 O   0  5  0  0  0  0
   -2.1060    1.8400    2.8750 C   0  0  0  0  0  0
   -3.2190    2.3680    1.9760 C   0  0  0  0  0  0
   -3.2500    3.8910    2.0450 C   0  0  0  0  0  0
   -4.5590    1.8100    2.4450 C   0  0  0  0  0  0
   -1.3451   -3.4071    0.0130 H   0  0  0  0  0  0
   -1.3451   -1.9790    0.8375 H   0  0  0  0  0  0
   -1.3451   -1.9790   -0.8115 H   0  0  0  0  0  0
    0.7989   -2.9671    0.9062 H   0  0  0  0  0  0
    2.0716   -3.0133   -1.2655 H   0  0  0  0  0  0
    0.5280   -2.7382   -2.1124 H   0  0  0  0  0  0
   -0.3946   -4.7720   -1.0511 H   0  0  0  0  0  0
    1.1752   -5.0558   -0.2602 H   0  0  0  0  0  0
   -0.3258   -0.5096   -1.4770 H   0  0  0  0  0  0
    1.8601    1.2444   -1.2636 H   0  0  0  0  0  0
    0.1363    3.0278   -1.8566 H   0  0  0  0  0  0
   -1.0870    1.7331   -1.7974 H   0  0  0  0  0  0
   -1.2073    1.1098    0.6219 H   0  0  0  0  0  0
   -0.7599    3.3752    2.2251 H   0  0  0  0  0  0
   -2.2370    2.2323    3.8835 H   0  0  0  0  0  0
   -2.1432    0.7509    2.8973 H   0  0  0  0  0  0
   -3.0350    2.0548    0.9483 H   0  0  0  0  0  0
   -4.0455    4.2682    1.4024 H   0  0  0  0  0  0
   -3.4339    4.2050    3.0725 H   0  0  0  0  0  0
   -2.2927    4.2900    1.7095 H   0  0  0  0  0  0
   -5.3550    2.1870    1.8028 H   0  0  0  0  0  0
   -4.5374    0.7214    2.3949 H   0  0  0  0  0  0
   -4.7435    2.1223    3.4729 H   0  0  0  0  0  0
  1  2  1  0  0  0
  1 27  1  0  0  0
  1 28  1  0  0  0
  1 29  1  0  0  0
  2  3  1  0  0  0
  2  5  1  0  0  0
  2 30  1  0  0  0
  3  4  2  0  0  0
  3 10  1  0  0  0
  5  6  1  0  0  0
  5 31  1  0  0  0
  5 32  1  0  0  0
  6  7  1  0  0  0
  6 33  1  0  0  0
  6 34  1  0  0  0
  7  8  1  0  0  0
  7  9  2  0  0  0
 10 11  1  0  0  0
 10 35  1  0  0  0
 11 12  1  0  0  0
 11 14  1  0  0  0
 11 36  1  0  0  0
 12 13  2  0  0  0
 12 18  1  0  0  0
 14 15  1  0  0  0
 14 37  1  0  0  0
 14 38  1  0  0  0
 15 16  1  0  0  0
 15 17  2  0  0  0
 18 19  1  0  0  0
 18 39  1  0  0  0
 19 20  1  0  0  0
 19 23  1  0  0  0
 19 40  1  0  0  0
 20 21  2  0  0  0
 20 22  1  0  0  0
 23 24  1  0  0  0
 23 41  1  0  0  0
 23 42  1  0  0  0
 24 25  1  0  0  0
 24 26  1  0  0  0
 24 43  1  0  0  0
 25 44  1  0  0  0
 25 45  1  0  0  0
 25 46  1  0  0  0
 26 47  1  0  0  0
 26 48  1  0  0  0
 26 49  1  0  0  0
M  CHG  4   1   1   8  -1  16  -1  22  -1
M  END
> <s_m_entry_id>
4

> <s_m_entry_name>
ligand.1

> <s_m_Source_Path>
/home/dani/docking/peptide150/1a30

> <s_m_Source_File>
ligand.sd

> <i_m_Source_File_Index>
1

$$$$
